*Heading
** Job name: H_Final Model name: Partion_MM
*Preprint, echo=NO, model=NO, history=NO, contact=NO
**
** PARTS
**
*Part, name=Part
*Node
      1,           0.,  0.104999997, 0.00100000005
      2,           0.,           0., 0.00100000005
      3, 0.0149999997,           0., 0.00100000005
      4, 0.0149999997, 0.0900000036, 0.00100000005
      5, 0.0299999993, 0.0900000036, 0.00100000005
      6, 0.0299999993,           0., 0.00100000005
      7, 0.0450000018,           0., 0.00100000005
      8, 0.0450000018,  0.104999997, 0.00100000005
      9,           0.,  0.104999997, 0.0160000008
     10,           0.,           0., 0.0160000008
     11, 0.0149999997,           0., 0.0160000008
     12, 0.0149999997, 0.0900000036, 0.0160000008
     13, 0.0299999993, 0.0900000036, 0.0160000008
     14, 0.0299999993,           0., 0.0160000008
     15, 0.0450000018,           0., 0.0160000008
     16, 0.0450000018,  0.104999997, 0.0160000008
     17, 0.0149999997,           0., 4.74974504e-11
     18,           0.,           0., 4.74974504e-11
     19,           0.,  0.104999997, 4.74974504e-11
     20, 0.0450000018,  0.104999997, 4.74974504e-11
** ... 900 like lines cut
*Element, type=Q3D8R
  1, 110, 111, 356, 335, 486, 487, 796, 775
  2, 358, 311, 312, 368, 798, 751, 752, 808
  3, 305, 359,  64,  65, 745, 799, 497, 498
  4, 336, 325, 106, 107, 776, 765, 482, 483
  5, 316, 306, 315, 377, 756, 746, 755, 817
  6,  99, 100, 377, 307, 627, 628, 817, 747
  7, 360, 389, 385, 388, 800, 829, 825, 828
  8, 308, 360,  27,  28, 748, 800, 541, 542
  9, 312,  61,  62, 368, 752, 515, 516, 808
 10, 311, 367, 309, 312, 751, 807, 749, 752
 11, 324,  58,  59, 366, 764, 512, 513, 806
 12, 364, 323, 317, 322, 804, 763, 757, 762
 13,  55,  56, 322, 318, 509, 510, 762, 758
 14, 361, 362, 319, 344, 801, 802, 759, 784
 15, 337, 320,  51,  52, 777, 760, 505, 506
 16, 320, 338,  50,  51, 760, 778, 504, 505
 17, 321, 338, 320, 342, 761, 778, 760, 782
 18, 338, 339,  49,  50, 778, 779, 503, 504
 19, 340, 339, 338, 321, 780, 779, 778, 761
 20,  48, 341, 391,  47, 502, 781, 831, 501
** ... 520 like lines cut
*Nset, nset=Set-1
   1,   2,   3,   4,   5,   6,   7,   8,   9,  10,  11,  12,  13,  14,  15,  16
  25,  26,  27,  28,  29,  30,  31,  32,  33,  34,  35,  36,  37,  38,  39,  40
  41,  42,  43,  44,  45,  46,  47,  48,  49,  50,  51,  52,  53,  54,  55,  56
  57,  58,  59,  60,  61,  62,  63,  64,  65,  66,  67,  68,  69,  70,  71,  72
  73,  74,  75,  76,  77,  78,  79,  80,  81,  82,  83,  84,  85,  86,  87,  88
  89,  90,  91,  92,  93,  94,  95,  96,  97,  98,  99, 100, 101, 102, 103, 104
 105, 106, 107, 108, 109, 110, 111, 112, 113, 114, 115, 116, 117, 118, 119, 120
 121, 122, 123, 124, 125, 126, 127, 128, 129, 130, 131, 132, 133, 134, 135, 136
 137, 138, 139, 140, 141, 142, 143, 144, 145, 146, 147, 148, 149, 150, 151, 152
 153, 154, 155, 156, 157, 158, 159, 160, 161, 162, 163, 164, 165, 166, 167, 168
 169, 170, 171, 172, 173, 174, 175, 176, 177, 178, 179, 180, 181, 182, 183, 184
 185, 186, 187, 188, 189, 190, 191, 192, 193, 194, 195, 196, 197, 198, 199, 200
 201, 202, 203, 204, 205, 206, 207, 208, 209, 210, 211, 212, 213, 214, 215, 216
 305, 306, 307, 308, 309, 310, 311, 312, 313, 314, 315, 316, 317, 318, 319, 320
 321, 322, 323, 324, 325, 326, 327, 328, 329, 330, 331, 332, 333, 334, 335, 336
 337, 338, 339, 340, 341, 342, 343, 344, 345, 346, 347, 348, 349, 350, 351, 352
 353, 354, 355, 356, 357, 358, 359, 360, 361, 362, 363, 364, 365, 366, 367, 368
 369, 370, 371, 372, 373, 374, 375, 376, 377, 378, 379, 380, 381, 382, 383, 384
 385, 386, 387, 388, 389, 390, 391, 392, 393, 394, 395, 396, 397, 398, 399, 400
 401, 402, 403, 404, 405, 406, 407, 408, 409, 410, 411, 412, 413, 414, 415, 416
** ... 26 like lines cut
*Elset, elset=Set-1, generate
   1,  405,    1
*Nset, nset=Set-2
   1,   2,   3,   4,   5,   6,   7,   8,  17,  18,  19,  20,  21,  22,  23,  24
  25,  26,  27,  28,  29,  30,  31,  32,  33,  34,  35,  36,  37,  38,  39,  40
  41,  42,  43,  44,  45,  46,  47,  48,  49,  50,  51,  52,  53,  54,  55,  56
  57,  58,  59,  60,  61,  62,  63,  64,  65,  66,  67,  68,  69,  70,  71,  72
  73,  74,  75,  76,  77,  78,  79,  80,  81,  82,  83,  84,  85,  86,  87,  88
  89,  90,  91,  92,  93,  94,  95,  96,  97,  98,  99, 100, 101, 102, 103, 104
 105, 106, 107, 108, 109, 110, 111, 112, 217, 218, 219, 220, 221, 222, 223, 224
 225, 226, 227, 228, 229, 230, 231, 232, 233, 234, 235, 236, 237, 238, 239, 240
 241, 242, 243, 244, 245, 246, 247, 248, 249, 250, 251, 252, 253, 254, 255, 256
 257, 258, 259, 260, 261, 262, 263, 264, 265, 266, 267, 268, 269, 270, 271, 272
 273, 274, 275, 276, 277, 278, 279, 280, 281, 282, 283, 284, 285, 286, 287, 288
 289, 290, 291, 292, 293, 294, 295, 296, 297, 298, 299, 300, 301, 302, 303, 304
 305, 306, 307, 308, 309, 310, 311, 312, 313, 314, 315, 316, 317, 318, 319, 320
 321, 322, 323, 324, 325, 326, 327, 328, 329, 330, 331, 332, 333, 334, 335, 336
 337, 338, 339, 340, 341, 342, 343, 344, 345, 346, 347, 348, 349, 350, 351, 352
 353, 354, 355, 356, 357, 358, 359, 360, 361, 362, 363, 364, 365, 366, 367, 368
 369, 370, 371, 372, 373, 374, 375, 376, 377, 378, 379, 380, 381, 382, 383, 384
 385, 386, 387, 388, 389, 390, 391, 392, 657, 658, 659, 660, 661, 662, 663, 664
 665, 666, 667, 668, 669, 670, 671, 672, 673, 674, 675, 676, 677, 678, 679, 680
 681, 682, 683, 684, 685, 686, 687, 688, 689, 690, 691, 692, 693, 694, 695, 696
 697, 698, 699, 700, 701, 702, 703, 704, 705, 706, 707, 708, 709, 710, 711, 712
 713, 714, 715, 716, 717, 718, 719, 720, 721, 722, 723, 724, 725, 726, 727, 728
 729, 730, 731, 732, 733, 734, 735, 736, 737, 738, 739, 740, 741, 742, 743, 744
*Elset, elset=Set-2, generate
 406,  540,    1
** Section: IPS
*Solid Section, elset=Set-1, material=IPS_MM
,
** Section: NI
*Solid Section, elset=Set-2, material=Nikkel_MM
,
*End Part
**  
**
** ASSEMBLY
**
*Assembly, name=Assembly
**  
*Instance, name=Part-1, part=Part
*End Instance
**  
*Nset, nset=NODE_L, instance=Part-1
   2,   3,  17,  18,  45,  46, 217, 218
*Nset, nset=NODE_R, instance=Part-1
   6,   7,  22,  83,  84, 267, 268
*Nset, nset=Set-1, instance=Part-1
   2,   3,   6,   7,  10,  11,  14,  15,  17,  18,  21,  22,  45,  46,  83,  84
 121, 122, 123, 124, 125, 126, 127, 128, 149, 150, 187, 188, 217, 218, 267, 268
 535, 536, 537, 538, 653, 654, 655, 656
*Elset, elset=Set-1, instance=Part-1
  21,  22,  23,  53,  54,  55, 156, 157, 158, 188, 189, 190, 291, 292, 293, 323
 324, 325, 426, 427, 428, 458, 459, 460
*Nset, nset=Set-2, instance=Part-1
   6,   7,  21,  22,  83,  84, 267, 268
*Elset, elset=Set-2, instance=Part-1, generate
 458,  460,    1
*Nset, nset=Set-3, instance=Part-1
   2,   3,   6,   7,  10,  11,  14,  15,  17,  18,  21,  22,  45,  46,  83,  84
 121, 122, 123, 124, 125, 126, 127, 128, 149, 150, 187, 188, 217, 218, 267, 268
 535, 536, 537, 538, 653, 654, 655, 656
*Elset, elset=Set-3, instance=Part-1
  21,  22,  23,  53,  54,  55, 156, 157, 158, 188, 189, 190, 291, 292, 293, 323
 324, 325, 426, 427, 428, 458, 459, 460
*Nset, nset=Set-4, instance=Part-1
  2,  3, 17, 18
*Nset, nset=Set-8, instance=Part-1
   6,   7,  21,  22,  83,  84, 267, 268
*Elset, elset=Set-8, instance=Part-1, generate
 458,  460,    1
*Nset, nset=Set-9, instance=Part-1
   6,   7,  14,  15,  21,  22,  83,  84, 125, 126, 127, 128, 187, 188, 267, 268
 653, 654, 655, 656
*Elset, elset=Set-9, instance=Part-1
  53,  54,  55, 188, 189, 190, 323, 324, 325, 458, 459, 460
*Nset, nset=Set-10, instance=Part-1
   2,   3,  10,  11,  17,  18,  45,  46, 121, 122, 123, 124, 149, 150, 217, 218
 535, 536, 537, 538
*Elset, elset=Set-10, instance=Part-1
  21,  22,  23, 156, 157, 158, 291, 292, 293, 426, 427, 428
*Elset, elset=_Surf-1_S4, internal, instance=Part-1
 408, 409, 413, 420, 421, 423, 426, 429, 432, 437, 440, 442, 445, 446, 449, 453
 455, 458, 463, 469, 470, 471, 472, 476, 478, 480, 481, 493, 496, 497, 501, 504
 506, 513, 518
*Elset, elset=_Surf-1_S6, internal, instance=Part-1
 406, 411, 418, 428, 433, 436, 439, 443, 447, 457, 460, 461, 474, 475, 482, 487
 489, 490, 494, 495, 505, 507, 511, 515, 517, 521, 527, 528, 536
*Elset, elset=_Surf-1_S3, internal, instance=Part-1
 425, 438, 452, 454, 475, 481, 486, 502, 509, 510
*Elset, elset=_Surf-1_S5, internal, instance=Part-1
 414, 416, 435, 464, 466, 477, 484, 485, 488, 491, 492, 503, 508, 514, 519, 532
*Elset, elset=_Surf-1_S2, internal, instance=Part-1, generate
 406,  540,    1
*Surface, type=ELEMENT, name=Surf-1
_Surf-1_S4, S4
_Surf-1_S6, S6
_Surf-1_S2, S2
_Surf-1_S3, S3
_Surf-1_S5, S5
*Elset, elset=_Surf-2_S5, internal, instance=Part-1
   3,   4,   8,  15,  16,  18,  21,  24,  27,  32,  35,  37,  40,  41,  44,  48
  50,  53,  58,  64,  65,  66,  67,  71,  73,  75,  76,  88,  91,  92,  96,  99
 101, 108, 113, 138, 139, 143, 150, 151, 153, 156, 159, 162, 167, 170, 172, 175
 176, 179, 183, 185, 188, 193, 199, 200, 201, 202, 206, 208, 210, 211, 223, 226
 227, 231, 234, 236, 243, 248, 273, 274, 278, 285, 286, 288, 291, 294, 297, 302
 305, 307, 310, 311, 314, 318, 320, 323, 328, 334, 335, 336, 337, 341, 343, 345
 346, 358, 361, 362, 366, 369, 371, 378, 383
*Elset, elset=_Surf-2_S6, internal, instance=Part-1
  20,  33,  47,  49,  70,  76,  81,  97, 104, 105, 155, 168, 182, 184, 205, 211
 216, 232, 239, 240, 290, 303, 317, 319, 340, 346, 351, 367, 374, 375
*Elset, elset=_Surf-2_S4, internal, instance=Part-1
   9,  11,  30,  59,  61,  72,  79,  80,  83,  86,  87,  98, 103, 109, 114, 127
 144, 146, 165, 194, 196, 207, 214, 215, 218, 221, 222, 233, 238, 244, 249, 262
 279, 281, 300, 329, 331, 342, 349, 350, 353, 356, 357, 368, 373, 379, 384, 397
*Elset, elset=_Surf-2_S3, internal, instance=Part-1
   1,   6,  13,  23,  28,  31,  34,  38,  42,  52,  55,  56,  69,  70,  77,  82
  84,  85,  89,  90, 100, 102, 106, 110, 112, 116, 122, 123, 131, 136, 141, 148
 158, 163, 166, 169, 173, 177, 187, 190, 191, 204, 205, 212, 217, 219, 220, 224
 225, 235, 237, 241, 245, 247, 251, 257, 258, 266, 271, 276, 283, 293, 298, 301
 304, 308, 312, 322, 325, 326, 339, 340, 347, 352, 354, 355, 359, 360, 370, 372
 376, 380, 382, 386, 392, 393, 401
*Elset, elset=_Surf-2_S2, internal, instance=Part-1, generate
 271,  405,    1
*Surface, type=ELEMENT, name=Surf-2
_Surf-2_S5, S5
_Surf-2_S6, S6
_Surf-2_S4, S4
_Surf-2_S2, S2
_Surf-2_S3, S3
*Elset, elset=_Surf-3_S3, internal, instance=Part-1
 426, 428
*Elset, elset=_Surf-3_S5, internal, instance=Part-1
 427,
*Surface, type=ELEMENT, name=Surf-3
_Surf-3_S3, S3
_Surf-3_S5, S5
*End Assembly
** 
** MATERIALS
** 
*Material, name=IPS_MM
*Conductivity
 0.003,
*Density
 1.111e-06,
*Elastic
4000., 0.3
*Electrical Conductivity
1.,
*Expansion
 5.2e-05,
*Joule Heat Fraction
          1.,
*Specific Heat
1500.,
*Material, name=Nikkel_MM
*Conductivity
 0.0086,
*Density
 6.5e-06,
*Dielectric
1.,
*Elastic
106010., 0.33
*Electrical Conductivity
1320.,
*Expansion
 7.6e-06,
*Joule Heat Fraction
          1.,
*Specific Heat
3700.,
** 
** INTERACTION PROPERTIES
** 
*Film Property, name=Constant
2e-05
*Film Property, name=DL_IPS
5e-06
*Film Property, name=DL_Ni
7.1e-06, 25.
1e-05, 40.
1.19e-05, 60.
1.32e-05, 80.
1.42e-05, 100.
** 
** PHYSICAL CONSTANTS
** 
*Physical Constants, absolute zero=-273.15, stefan boltzmann=5.669e-08
** ----------------------------------------------------------------
** 
** STEP: Step-1
** 
*Step, name=Step-1, nlgeom=NO
*Static
0.01, 1., 1e-05, 1.
** 
** BOUNDARY CONDITIONS
** 
** Name: BC-1 Type: Symmetry/Antisymmetry/Encastre
*Boundary
Set-1, ENCASTRE
** 
** LOADS
** 
** Name: Load-1   Type: Gravity
*Dload
, GRAV, 9810., 0., 0., -1.
** 
** OUTPUT REQUESTS
** 
*Restart, write, frequency=0
** 
** FIELD OUTPUT: F-Output-1
** 
*Output, field, variable=PRESELECT
** 
** HISTORY OUTPUT: H-Output-1
** 
*Output, history, variable=PRESELECT
*End Step
** ----------------------------------------------------------------
** 
** STEP: Step-2
** 
*Step, name=Step-2, nlgeom=NO, inc=3000
*Coupled Temperature-displacement, electrical, creep=none, deltmx=1.
0.001, 0.6, 5e-08, 0.6
** 
** BOUNDARY CONDITIONS
** 
** Name: BC-2 Type: Electric potential
*Boundary
NODE_R, 9, 9
** Name: BC-3 Type: Temperature
*Boundary
Set-9, 11, 11, 20.
** Name: BC-5 Type: Temperature
*Boundary
Set-10, 11, 11, 20.
** 
** LOADS
** 
** Name: Load-3   Type: Concentrated current
*Cecurrent
NODE_L, ,0.001875
** 
** INTERACTIONS
** 
** Interaction: DL_NI
*Sfilm
Surf-1, F, 20., Constant
** Interaction: IPS
*Sfilm
Surf-2, F, 20., Constant
** 
** OUTPUT REQUESTS
** 
*Restart, write, frequency=0
** 
** FIELD OUTPUT: F-Output-2
** 
*Output, field
*Node Output
EPOT, NT, U
*Element Output, directions=YES
EPG, HFL, S
** 
** FIELD OUTPUT: F-Output-1
** 
*Output, field, variable=PRESELECT
** 
** HISTORY OUTPUT: H-Output-1
** 
*Output, history, variable=PRESELECT
*End Step
