*Heading
** Job name: Mode4 Model name: teaf-steadystate-refined
*Preprint, echo=NO, model=NO, history=NO, contact=NO
**
** PARTS
**
*Part, name=PART-1-1
*Node
      1,   1.33196402,   21.7602196,  0.379999995
      2,  0.579902828,   22.6055298,  0.379999995
      3,  0.324169397,   23.9540901,  0.379999995
      4,   1.01932299,   25.5917702,  0.379999995
      5,   2.66243291,     24.89431,  0.379999995
      6,    2.6521461,   24.8703709,  0.379999995
      7,  0.324169397,   23.9540901,  0.239999995
      8,   1.01932299,   25.5917702,  0.239999995
      9,   2.66243291,     24.89431,  0.239999995
     10,    2.6521461,   24.8703709,  0.239999995
     11,   1.33196402,   21.7602196,  0.239999995
     12,  0.579902828,   22.6055298,  0.239999995
     13,   1.01932299,   25.5917702,  0.519999981
     14,  0.324169397,   23.9540901,  0.519999981
     15,  0.579902828,   22.6055298,  0.519999981
     16,   1.33196402,   21.7602196,  0.519999981
     17,    2.6521461,   24.8703709,  0.519999981
     18,   2.66243291,     24.89431,  0.519999981
     19,   14.6099997,   2.67000008,  0.379999995
     20,   10.9289999,   2.67000008,  0.379999995
** ... 7940 like lines cut
*Element, type=DC3D8E
   1,  270,  271, 2044, 2041, 2113, 2114, 6034, 6031
   2,  271,  272, 2045, 2044, 2114, 2115, 6035, 6034
   3,  272,  273, 2046, 2045, 2115, 2116, 6036, 6035
   4,  273,  274, 2047, 2046, 2116, 2117, 6037, 6036
   5,  274,  275, 2048, 2047, 2117, 2118, 6038, 6037
   6,  275,  276, 2049, 2048, 2118, 2119, 6039, 6038
   7,  276,  277, 2050, 2049, 2119, 2120, 6040, 6039
   8,  277,  278, 2051, 2050, 2120, 2121, 6041, 6040
   9,  278,  279, 2052, 2051, 2121, 2122, 6042, 6041
  10,  279,    1,  252, 2052, 2122,  285, 2112, 6042
  11, 2041, 2044, 2040, 2031, 6031, 6034, 6030, 6021
  12, 2044, 2045, 2039, 2040, 6034, 6035, 6029, 6030
  13, 2045, 2046, 2038, 2039, 6035, 6036, 6028, 6029
  14, 2046, 2047, 2037, 2038, 6036, 6037, 6027, 6028
  15, 2047, 2048, 2036, 2037, 6037, 6038, 6026, 6027
  16, 2048, 2049, 2035, 2036, 6038, 6039, 6025, 6026
  17, 2049, 2050, 2034, 2035, 6039, 6040, 6024, 6025
  18, 2050, 2051, 2033, 2034, 6040, 6041, 6023, 6024
  19, 2051, 2052, 2032, 2033, 6041, 6042, 6022, 6023
  20, 2052,  252,  253, 2032, 6042, 2112, 2111, 6022
** ... 5560 like lines cut
*Elset, elset=_PICKEDSET19, internal, generate
    1,  5580,     1
** Section: Section-1-_PICKEDSET19
*Solid Section, elset=_PICKEDSET19, material=ZINC
1.,
*End Part
**  
**
** ASSEMBLY
**
*Assembly, name=Assembly
**  
*Instance, name=PART-1-1, part=PART-1-1
*End Instance
**  
*Nset, nset=MEAS-PTS, instance=PART-1-1
  13,  15,  24,  59, 106, 113, 128, 137, 161, 174, 179, 220
*Nset, nset=NLHS, instance=PART-1-1
   45,   46,   47,   48,   68,   69,  112,  113,  116,  481,  482,  483,  484,  485,  486,  487
  488,  489,  490,  491,  492,  669,  670,  671,  672,  673,  674,  675,  676,  677, 1006, 1007
 1008, 1009, 1010, 1011, 1051, 1052, 1053, 1054, 1055, 1060, 2321, 2322, 2323, 2324, 2325, 2674
 2675, 2676, 2677, 3503, 3504, 3505, 3506, 3691, 3692, 3693, 3694, 3695
*Elset, elset=NLHS, instance=PART-1-1
  339,  340,  341,  342,  343,  344,  345,  346,  347,  348,  349,  350,  739,  740,  741,  742
  743,  744,  745,  746,  747,  748, 1785, 1790, 1795, 1800, 1805, 1810, 1815, 1820, 1825, 1830
 2159, 2160, 2161, 2162, 2163, 2164, 2189, 2190, 2191, 2192, 2193, 2194
*Elset, elset=_LHS_S1, internal, instance=PART-1-1
 339, 340, 341, 342, 343, 344, 345, 346, 347, 348, 349, 350, 739, 740, 741, 742
 743, 744, 745, 746, 747, 748
*Elset, elset=_LHS_S5, internal, instance=PART-1-1
 2159, 2160, 2161, 2162, 2163, 2164, 2189, 2190, 2191, 2192, 2193, 2194
*Elset, elset=_LHS_S6, internal, instance=PART-1-1, generate
 1785,  1830,     5
*Nset, nset=_PICKEDSET33, internal, instance=PART-1-1
   23,   24,   25,   26,   74,   75,  102,  103,  124,  360,  361,  362,  363,  364,  365,  366
  367,  368,  369,  370,  371,  724,  725,  726,  727,  728,  729,  730,  731,  732,  937,  938
  939,  940,  950,  951, 1113, 1114, 1115, 1116, 1117, 1118, 2188, 2189, 2190, 2191, 2192, 2872
 2873, 2874, 2875, 3369, 3370, 3371, 3372, 3776, 3777, 3778, 3779, 3780
*Elset, elset=_PICKEDSET33, internal, instance=PART-1-1
  241,  242,  243,  244,  245,  246,  247,  248,  249,  250,  251,  252,  929,  930,  931,  932
  933,  934,  935,  936,  937,  938, 1559, 1564, 1569, 1574, 1579, 1584, 1589, 1594, 1599, 1604
 2281, 2286, 2291, 2296, 2301, 2306, 2311, 2316, 2321, 2326, 2331, 2336
*Nset, nset=_PICKEDSET34, internal, instance=PART-1-1
   45,   46,   47,   48,   68,   69,  112,  113,  116,  481,  482,  483,  484,  485,  486,  487
  488,  489,  490,  491,  492,  669,  670,  671,  672,  673,  674,  675,  676,  677, 1006, 1007
 1008, 1009, 1010, 1011, 1051, 1052, 1053, 1054, 1055, 1060, 2321, 2322, 2323, 2324, 2325, 2674
 2675, 2676, 2677, 3503, 3504, 3505, 3506, 3691, 3692, 3693, 3694, 3695
*Elset, elset=_PICKEDSET34, internal, instance=PART-1-1
  339,  340,  341,  342,  343,  344,  345,  346,  347,  348,  349,  350,  739,  740,  741,  742
  743,  744,  745,  746,  747,  748, 1785, 1790, 1795, 1800, 1805, 1810, 1815, 1820, 1825, 1830
 2159, 2160, 2161, 2162, 2163, 2164, 2189, 2190, 2191, 2192, 2193, 2194
*Nset, nset=_PICKEDSET35, internal, instance=PART-1-1
   23,   24,   25,   26,   74,   75,  102,  103,  124,  360,  361,  362,  363,  364,  365,  366
  367,  368,  369,  370,  371,  724,  725,  726,  727,  728,  729,  730,  731,  732,  937,  938
  939,  940,  950,  951, 1113, 1114, 1115, 1116, 1117, 1118, 2188, 2189, 2190, 2191, 2192, 2872
 2873, 2874, 2875, 3369, 3370, 3371, 3372, 3776, 3777, 3778, 3779, 3780
*Elset, elset=_PICKEDSET35, internal, instance=PART-1-1
  241,  242,  243,  244,  245,  246,  247,  248,  249,  250,  251,  252,  929,  930,  931,  932
  933,  934,  935,  936,  937,  938, 1559, 1564, 1569, 1574, 1579, 1584, 1589, 1594, 1599, 1604
 2281, 2286, 2291, 2296, 2301, 2306, 2311, 2316, 2321, 2326, 2331, 2336
*Elset, elset=__PICKEDSURF37_S1, internal, instance=PART-1-1
 1810, 1811, 1812, 1813, 1814, 1815, 1816, 1817, 1818, 1819, 1820, 1821, 1822, 1823, 1824, 1825
 1826, 1827, 1828, 1829, 1830, 1831, 1832, 1833, 1834, 1910, 1911, 1912, 1913, 1914, 1915, 1916
 1917, 1918, 1919, 1920, 1921, 1922, 1923, 1924, 1925, 1926, 1927, 1928, 1929, 1930, 1931, 1932
 1933, 1934, 1935, 1936, 1937, 1938, 1939, 1940, 1941, 1942, 1943, 1944, 1945, 1946, 1947, 1948
 1949, 1950, 1951, 1952, 1953, 1954, 1955, 1956, 1957, 1958, 1959, 1960, 1961, 1962, 1963, 1964
 1965, 1966, 1967, 1968, 1969, 1970, 1971, 1972, 1973, 1974, 1975, 1976, 1977, 1978, 1979, 1980
 1981, 1982, 1983, 1984, 2165, 2166, 2167, 2168, 2169, 2170, 2171, 2172, 2173, 2174, 2175, 2176
 2177, 2178, 2179, 2180, 2181, 2182, 2183, 2184, 2185, 2186, 2187, 2188, 2189, 2190, 2191, 2192
 2193, 2194
*Elset, elset=__PICKEDSURF37_S2, internal, instance=PART-1-1
 1375, 1376, 1377, 1378, 1379, 1380, 1381, 1382, 1383, 1384, 1385, 1386, 1387, 1388, 1389, 1390
 1391, 1392, 1393, 1394, 1395, 1396, 1397, 1398, 1399, 1400, 1401, 1402, 1403, 1404, 1405, 1406
 1407, 1408, 1409, 1410, 1411, 1412, 1413, 1414, 1415, 1416, 1417, 1418, 1419, 1420, 1421, 1422
 1423, 1424, 1425, 1426, 1427, 1428, 1429, 1430, 1431, 1432, 1433, 1434, 1435, 1436, 1437, 1438
 1439, 1440, 1441, 1442, 1443, 1444, 1445, 1446, 1447, 1448, 1449, 1450, 1451, 1452, 1453, 1454
 1455, 1456, 1457, 1458, 1459, 1460, 1461, 1462, 1463, 1464, 1555, 1556, 1557, 1558, 1559, 1560
 1561, 1562, 1563, 1564, 1565, 1566, 1567, 1568, 1569, 1570, 1571, 1572, 1573, 1574, 1575, 1576
 1577, 1578, 1579, 1605, 1606, 1607, 1608, 1609, 1610, 1611, 1612, 1613, 1614, 1615, 1616, 1617
 1618, 1619, 1620, 1621, 1622, 1623, 1624, 1625, 1626, 1627, 1628, 1629, 1630, 1631, 1632, 1633
 1634, 1635, 1636, 1637, 1638, 1639, 1640, 1641, 1642, 1643, 1644, 1645, 1646, 1647, 1648, 1649
 1650, 1651, 1652, 1653, 1654, 1655, 1656, 1657, 1658, 1659, 1660, 1661, 1662, 1663, 1664, 1665
 1666, 1667, 1668, 1669, 1670, 1671, 1672, 1673, 1674, 1675, 1676, 1677, 1678, 1679, 1680, 1681
 1682, 1683, 1684, 1685, 1686, 1687, 1688, 1689, 1690, 1691, 1692, 1693, 1694, 1985, 1986, 1987
 1988, 1989, 1990, 1991, 1992, 1993, 1994, 1995, 1996, 1997, 1998, 1999, 2000, 2001, 2002, 2003
 2004, 2005, 2006, 2007, 2008, 2009, 2010, 2011, 2012, 2013, 2014, 2015, 2016, 2017, 2018, 2019
 2020, 2021, 2022, 2023, 2024, 2025, 2026, 2027, 2028, 2029, 2030, 2031, 2032, 2033, 2034, 2035
 2036, 2037, 2038, 2039, 2040, 2041, 2042, 2043, 2044, 2045, 2046, 2047, 2048, 2049, 2050, 2051
 2052, 2053, 2054, 2055, 2056, 2057, 2058, 2059, 2281, 2282, 2283, 2284, 2285, 2286, 2287, 2288
 2289, 2290, 2291, 2292, 2293, 2294, 2295, 2296, 2297, 2298, 2299, 2300, 2301, 2302, 2303, 2304
 2305, 2306, 2307, 2308, 2309, 2310, 2730, 2731, 2732, 2733, 2734, 2735, 2736, 2737, 2738, 2739
** ... 59 like lines cut
*Elset, elset=__PICKEDSURF37_S5, internal, instance=PART-1-1
  199,  200,  201,  202,  203,  204,  211,  212,  213,  214,  215,  216,  223,  224,  225,  226
  227,  228,  235,  236,  237,  238,  239,  240,  247,  248,  249,  250,  251,  252,  345,  346
  347,  348,  349,  350,  357,  358,  359,  360,  361,  362,  369,  370,  371,  372,  373,  374
  381,  382,  383,  384,  385,  386,  393,  394,  395,  396,  397,  398,  404,  405,  406,  407
  408,  414,  415,  416,  417,  418,  424,  425,  426,  427,  428,  434,  435,  436,  437,  438
  444,  445,  446,  447,  448,  454,  455,  456,  457,  458,  464,  465,  466,  467,  468,  474
  475,  476,  477,  478,  484,  485,  486,  487,  488,  494,  495,  496,  497,  498,  504,  505
  506,  507,  508,  514,  515,  516,  517,  518,  524,  525,  526,  527,  528,  534,  535,  536
  537,  538,  544,  545,  546,  547,  548,  554,  555,  556,  557,  558,  564,  565,  566,  567
  568,  574,  575,  576,  577,  578,  584,  585,  586,  587,  588,  594,  595,  596,  597,  598
  604,  605,  606,  607,  608,  614,  615,  616,  617,  618,  624,  625,  626,  627,  628,  634
  635,  636,  637,  638,  644,  645,  646,  647,  648,  654,  655,  656,  657,  658,  664,  665
  666,  667,  668,  674,  675,  676,  677,  678,  684,  685,  686,  687,  688,  694,  695,  696
  697,  698,  704,  705,  706,  707,  708,  714,  715,  716,  717,  718,  724,  725,  726,  727
  728,  734,  735,  736,  737,  738,  744,  745,  746,  747,  748,  755,  756,  757,  758,  759
  760,  767,  768,  769,  770,  771,  772,  779,  780,  781,  782,  783,  784,  791,  792,  793
  794,  795,  796,  803,  804,  805,  806,  807,  808,  815,  816,  817,  818,  819,  820,  827
  828,  829,  830,  831,  832,  839,  840,  841,  842,  843,  844,  851,  852,  853,  854,  855
  856,  863,  864,  865,  866,  867,  868,  875,  876,  877,  878,  879,  880,  887,  888,  889
  890,  891,  892,  899,  900,  901,  902,  903,  904,  911,  912,  913,  914,  915,  916,  923
** ... 8 like lines cut
*Elset, elset=__PICKEDSURF38_S2, internal, instance=PART-1-1
   49,   50,   51,   52,   53,   54,   55,   56,   57,   58,   59,   60,   61,   62,   63,   64
   65,   66,   67,   68,   69,   70,   71,   72,   73,   74,   75,   76,   77,   78,   79,   80
   81,   82,   83,   84,   85,   86,   87,   88,   89,   90,   91,   92,   93,   94,   95,   96
  145,  146,  147,  148,  149,  150,  151,  152,  153,  154,  155,  156,  157,  158,  159,  160
  161,  162,  163,  164,  165,  166,  167,  168,  169,  170,  171,  172,  173,  174,  175,  176
  177,  178,  179,  180,  181,  182,  183,  184,  185,  186,  187,  188,  189,  190,  191,  192
 2391, 2392, 2393, 2394, 2395, 2396, 2397, 2398, 2399, 2400, 2401, 2402, 2403, 2404, 2405, 2406
 2407, 2408, 2409, 2410, 2411, 2412, 2413, 2414, 2415, 2416, 2417, 2418, 2419, 2420, 2421, 2422
 2423, 2424, 2425, 2426, 2427, 2428, 2429, 2430, 2431, 2432, 2433, 2434, 2435, 2436, 2437, 2438
 2439, 2440, 2491, 2492, 2493, 2494, 2495, 2496, 2497, 2498, 2499, 2500, 2501, 2502, 2503, 2504
 2505, 2506, 2507, 2508, 2509, 2510, 2511, 2512, 2513, 2514, 2515, 2516, 2517, 2518, 2519, 2520
 2521, 2522, 2523, 2524, 2525, 2526, 2527, 2528, 2529, 2530, 2531, 2532, 2533, 2534, 2535, 2536
 2537, 2538, 2539, 2540, 2601, 2602, 2603, 2604, 2605, 2606, 2607, 2608, 2609, 2610, 2611, 2612
 2613, 2614, 2615, 2616, 2617, 2618, 2619, 2620, 2621, 2622, 2623, 2624, 2625, 2626, 2627, 2628
 2629, 2630, 2631, 2632, 2633, 2634, 2635, 2636, 2637, 2638, 2639, 2640, 2641, 2642, 2643, 2644
 2645, 2646, 2647, 2648, 2649, 2650, 2651, 2652, 2653, 2654, 2655, 2656, 2657, 2658, 2659, 2660
 3658, 3659, 3660, 3661, 3662, 3663, 3664, 3665, 3666, 3667, 3668, 3669, 3670, 3671, 3672, 3673
 3674, 3675, 3676, 3677, 3678, 3679, 3680, 3681, 3682, 3683, 3684, 3685, 3686, 3687, 3688, 3689
 3690, 3691, 3692, 3693, 3694, 3695, 3696, 3697, 3698, 3699, 3700, 3701, 3702, 3703, 3704, 3759
 3760, 3761, 3762, 3763, 3764, 3765, 3766, 3767, 3768, 3769, 3770, 3771, 3772, 3773, 3774, 3775
** ... 28 like lines cut
*Elset, elset=__PICKEDSURF38_S3, internal, instance=PART-1-1
  294,  295,  296,  297,  298,  299,  300,  302, 2247, 2248, 2249, 2250, 2251, 2252, 2253
*Elset, elset=__PICKEDSURF38_S4, internal, instance=PART-1-1
  287,  288,  289,  290,  291,  292,  293, 2246, 2254, 2255, 2256, 2257, 2258, 2259, 2260
*Elset, elset=__PICKEDSURF38_S5, internal, instance=PART-1-1
  258,  259,  260,  261,  262,  268,  269,  270,  271,  272,  312,  313,  314,  315,  316,  317
  318,  319,  320,  330,  331,  332,  333,  334,  335,  336,  337,  338, 1166, 1167, 1168, 1169
 1170, 1171, 1172, 1180, 1181, 1182, 1183, 1184, 1185, 1186, 1194, 1195, 1196, 1197, 1198, 1199
 1200, 1208, 1209, 1210, 1211, 1212, 1213, 1214, 1222, 1223, 1224, 1225, 1226, 1227, 1228, 1236
 1237, 1238, 1239, 1240, 1241, 1242, 1249, 1250, 1251, 1252, 1253, 1254, 1261, 1262, 1263, 1264
 1265, 1266, 1273, 1274, 1275, 1276, 1277, 1278, 1285, 1286, 1287, 1288, 1289, 1290, 1298, 1299
 1300, 1301, 1302, 1303, 1304, 1312, 1313, 1314, 1315, 1316, 1317, 1318, 1326, 1327, 1328, 1329
 1330, 1331, 1332, 1340, 1341, 1342, 1343, 1344, 1345, 1346, 1354, 1355, 1356, 1357, 1358, 1359
 1360, 1368, 1369, 1370, 1371, 1372, 1373, 1374, 2204, 2205, 2206, 2207, 2208, 2209, 2210, 2211
 2212, 2222, 2223, 2224, 2225, 2226, 2227, 2228, 2229, 2230, 2266, 2267, 2268, 2269, 2270, 2276
 2277, 2278, 2279, 2280
*Elset, elset=_LHS_S5_1, internal, instance=PART-1-1
 2159, 2160, 2161, 2162, 2163, 2164, 2189, 2190, 2191, 2192, 2193, 2194
*Elset, elset=_LHS_S6_1, internal, instance=PART-1-1, generate
 1785,  1830,     5
*Elset, elset=_LHS_S1_1, internal, instance=PART-1-1
 339, 340, 341, 342, 343, 344, 345, 346, 347, 348, 349, 350, 739, 740, 741, 742
 743, 744, 745, 746, 747, 748
*Surface, type=ELEMENT, name=LHS
_LHS_S5_1, S5
_LHS_S6_1, S6
_LHS_S1_1, S1
*Elset, elset=__PICKEDSURF37_S5_1, internal, instance=PART-1-1
  199,  200,  201,  202,  203,  204,  211,  212,  213,  214,  215,  216,  223,  224,  225,  226
  227,  228,  235,  236,  237,  238,  239,  240,  247,  248,  249,  250,  251,  252,  345,  346
  347,  348,  349,  350,  357,  358,  359,  360,  361,  362,  369,  370,  371,  372,  373,  374
  381,  382,  383,  384,  385,  386,  393,  394,  395,  396,  397,  398,  404,  405,  406,  407
  408,  414,  415,  416,  417,  418,  424,  425,  426,  427,  428,  434,  435,  436,  437,  438
  444,  445,  446,  447,  448,  454,  455,  456,  457,  458,  464,  465,  466,  467,  468,  474
  475,  476,  477,  478,  484,  485,  486,  487,  488,  494,  495,  496,  497,  498,  504,  505
  506,  507,  508,  514,  515,  516,  517,  518,  524,  525,  526,  527,  528,  534,  535,  536
  537,  538,  544,  545,  546,  547,  548,  554,  555,  556,  557,  558,  564,  565,  566,  567
  568,  574,  575,  576,  577,  578,  584,  585,  586,  587,  588,  594,  595,  596,  597,  598
  604,  605,  606,  607,  608,  614,  615,  616,  617,  618,  624,  625,  626,  627,  628,  634
  635,  636,  637,  638,  644,  645,  646,  647,  648,  654,  655,  656,  657,  658,  664,  665
  666,  667,  668,  674,  675,  676,  677,  678,  684,  685,  686,  687,  688,  694,  695,  696
  697,  698,  704,  705,  706,  707,  708,  714,  715,  716,  717,  718,  724,  725,  726,  727
  728,  734,  735,  736,  737,  738,  744,  745,  746,  747,  748,  755,  756,  757,  758,  759
  760,  767,  768,  769,  770,  771,  772,  779,  780,  781,  782,  783,  784,  791,  792,  793
  794,  795,  796,  803,  804,  805,  806,  807,  808,  815,  816,  817,  818,  819,  820,  827
  828,  829,  830,  831,  832,  839,  840,  841,  842,  843,  844,  851,  852,  853,  854,  855
  856,  863,  864,  865,  866,  867,  868,  875,  876,  877,  878,  879,  880,  887,  888,  889
  890,  891,  892,  899,  900,  901,  902,  903,  904,  911,  912,  913,  914,  915,  916,  923
** ... 8 like lines cut
*Elset, elset=__PICKEDSURF37_S2_1, internal, instance=PART-1-1
 1375, 1376, 1377, 1378, 1379, 1380, 1381, 1382, 1383, 1384, 1385, 1386, 1387, 1388, 1389, 1390
 1391, 1392, 1393, 1394, 1395, 1396, 1397, 1398, 1399, 1400, 1401, 1402, 1403, 1404, 1405, 1406
 1407, 1408, 1409, 1410, 1411, 1412, 1413, 1414, 1415, 1416, 1417, 1418, 1419, 1420, 1421, 1422
 1423, 1424, 1425, 1426, 1427, 1428, 1429, 1430, 1431, 1432, 1433, 1434, 1435, 1436, 1437, 1438
 1439, 1440, 1441, 1442, 1443, 1444, 1445, 1446, 1447, 1448, 1449, 1450, 1451, 1452, 1453, 1454
 1455, 1456, 1457, 1458, 1459, 1460, 1461, 1462, 1463, 1464, 1555, 1556, 1557, 1558, 1559, 1560
 1561, 1562, 1563, 1564, 1565, 1566, 1567, 1568, 1569, 1570, 1571, 1572, 1573, 1574, 1575, 1576
 1577, 1578, 1579, 1605, 1606, 1607, 1608, 1609, 1610, 1611, 1612, 1613, 1614, 1615, 1616, 1617
 1618, 1619, 1620, 1621, 1622, 1623, 1624, 1625, 1626, 1627, 1628, 1629, 1630, 1631, 1632, 1633
 1634, 1635, 1636, 1637, 1638, 1639, 1640, 1641, 1642, 1643, 1644, 1645, 1646, 1647, 1648, 1649
 1650, 1651, 1652, 1653, 1654, 1655, 1656, 1657, 1658, 1659, 1660, 1661, 1662, 1663, 1664, 1665
 1666, 1667, 1668, 1669, 1670, 1671, 1672, 1673, 1674, 1675, 1676, 1677, 1678, 1679, 1680, 1681
 1682, 1683, 1684, 1685, 1686, 1687, 1688, 1689, 1690, 1691, 1692, 1693, 1694, 1985, 1986, 1987
 1988, 1989, 1990, 1991, 1992, 1993, 1994, 1995, 1996, 1997, 1998, 1999, 2000, 2001, 2002, 2003
 2004, 2005, 2006, 2007, 2008, 2009, 2010, 2011, 2012, 2013, 2014, 2015, 2016, 2017, 2018, 2019
 2020, 2021, 2022, 2023, 2024, 2025, 2026, 2027, 2028, 2029, 2030, 2031, 2032, 2033, 2034, 2035
 2036, 2037, 2038, 2039, 2040, 2041, 2042, 2043, 2044, 2045, 2046, 2047, 2048, 2049, 2050, 2051
 2052, 2053, 2054, 2055, 2056, 2057, 2058, 2059, 2281, 2282, 2283, 2284, 2285, 2286, 2287, 2288
 2289, 2290, 2291, 2292, 2293, 2294, 2295, 2296, 2297, 2298, 2299, 2300, 2301, 2302, 2303, 2304
 2305, 2306, 2307, 2308, 2309, 2310, 2730, 2731, 2732, 2733, 2734, 2735, 2736, 2737, 2738, 2739
** ... 59 like lines cut
*Elset, elset=__PICKEDSURF37_S1_1, internal, instance=PART-1-1
 1810, 1811, 1812, 1813, 1814, 1815, 1816, 1817, 1818, 1819, 1820, 1821, 1822, 1823, 1824, 1825
 1826, 1827, 1828, 1829, 1830, 1831, 1832, 1833, 1834, 1910, 1911, 1912, 1913, 1914, 1915, 1916
 1917, 1918, 1919, 1920, 1921, 1922, 1923, 1924, 1925, 1926, 1927, 1928, 1929, 1930, 1931, 1932
 1933, 1934, 1935, 1936, 1937, 1938, 1939, 1940, 1941, 1942, 1943, 1944, 1945, 1946, 1947, 1948
 1949, 1950, 1951, 1952, 1953, 1954, 1955, 1956, 1957, 1958, 1959, 1960, 1961, 1962, 1963, 1964
 1965, 1966, 1967, 1968, 1969, 1970, 1971, 1972, 1973, 1974, 1975, 1976, 1977, 1978, 1979, 1980
 1981, 1982, 1983, 1984, 2165, 2166, 2167, 2168, 2169, 2170, 2171, 2172, 2173, 2174, 2175, 2176
 2177, 2178, 2179, 2180, 2181, 2182, 2183, 2184, 2185, 2186, 2187, 2188, 2189, 2190, 2191, 2192
 2193, 2194
*Surface, type=ELEMENT, name=_PICKEDSURF37, internal
__PICKEDSURF37_S5_1, S5
__PICKEDSURF37_S2_1, S2
__PICKEDSURF37_S1_1, S1
*Elset, elset=__PICKEDSURF38_S2_1, internal, instance=PART-1-1
   49,   50,   51,   52,   53,   54,   55,   56,   57,   58,   59,   60,   61,   62,   63,   64
   65,   66,   67,   68,   69,   70,   71,   72,   73,   74,   75,   76,   77,   78,   79,   80
   81,   82,   83,   84,   85,   86,   87,   88,   89,   90,   91,   92,   93,   94,   95,   96
  145,  146,  147,  148,  149,  150,  151,  152,  153,  154,  155,  156,  157,  158,  159,  160
  161,  162,  163,  164,  165,  166,  167,  168,  169,  170,  171,  172,  173,  174,  175,  176
  177,  178,  179,  180,  181,  182,  183,  184,  185,  186,  187,  188,  189,  190,  191,  192
 2391, 2392, 2393, 2394, 2395, 2396, 2397, 2398, 2399, 2400, 2401, 2402, 2403, 2404, 2405, 2406
 2407, 2408, 2409, 2410, 2411, 2412, 2413, 2414, 2415, 2416, 2417, 2418, 2419, 2420, 2421, 2422
 2423, 2424, 2425, 2426, 2427, 2428, 2429, 2430, 2431, 2432, 2433, 2434, 2435, 2436, 2437, 2438
 2439, 2440, 2491, 2492, 2493, 2494, 2495, 2496, 2497, 2498, 2499, 2500, 2501, 2502, 2503, 2504
 2505, 2506, 2507, 2508, 2509, 2510, 2511, 2512, 2513, 2514, 2515, 2516, 2517, 2518, 2519, 2520
 2521, 2522, 2523, 2524, 2525, 2526, 2527, 2528, 2529, 2530, 2531, 2532, 2533, 2534, 2535, 2536
 2537, 2538, 2539, 2540, 2601, 2602, 2603, 2604, 2605, 2606, 2607, 2608, 2609, 2610, 2611, 2612
 2613, 2614, 2615, 2616, 2617, 2618, 2619, 2620, 2621, 2622, 2623, 2624, 2625, 2626, 2627, 2628
 2629, 2630, 2631, 2632, 2633, 2634, 2635, 2636, 2637, 2638, 2639, 2640, 2641, 2642, 2643, 2644
 2645, 2646, 2647, 2648, 2649, 2650, 2651, 2652, 2653, 2654, 2655, 2656, 2657, 2658, 2659, 2660
 3658, 3659, 3660, 3661, 3662, 3663, 3664, 3665, 3666, 3667, 3668, 3669, 3670, 3671, 3672, 3673
 3674, 3675, 3676, 3677, 3678, 3679, 3680, 3681, 3682, 3683, 3684, 3685, 3686, 3687, 3688, 3689
 3690, 3691, 3692, 3693, 3694, 3695, 3696, 3697, 3698, 3699, 3700, 3701, 3702, 3703, 3704, 3759
 3760, 3761, 3762, 3763, 3764, 3765, 3766, 3767, 3768, 3769, 3770, 3771, 3772, 3773, 3774, 3775
** ... 28 like lines cut
*Elset, elset=__PICKEDSURF38_S5_1, internal, instance=PART-1-1
  258,  259,  260,  261,  262,  268,  269,  270,  271,  272,  312,  313,  314,  315,  316,  317
  318,  319,  320,  330,  331,  332,  333,  334,  335,  336,  337,  338, 1166, 1167, 1168, 1169
 1170, 1171, 1172, 1180, 1181, 1182, 1183, 1184, 1185, 1186, 1194, 1195, 1196, 1197, 1198, 1199
 1200, 1208, 1209, 1210, 1211, 1212, 1213, 1214, 1222, 1223, 1224, 1225, 1226, 1227, 1228, 1236
 1237, 1238, 1239, 1240, 1241, 1242, 1249, 1250, 1251, 1252, 1253, 1254, 1261, 1262, 1263, 1264
 1265, 1266, 1273, 1274, 1275, 1276, 1277, 1278, 1285, 1286, 1287, 1288, 1289, 1290, 1298, 1299
 1300, 1301, 1302, 1303, 1304, 1312, 1313, 1314, 1315, 1316, 1317, 1318, 1326, 1327, 1328, 1329
 1330, 1331, 1332, 1340, 1341, 1342, 1343, 1344, 1345, 1346, 1354, 1355, 1356, 1357, 1358, 1359
 1360, 1368, 1369, 1370, 1371, 1372, 1373, 1374, 2204, 2205, 2206, 2207, 2208, 2209, 2210, 2211
 2212, 2222, 2223, 2224, 2225, 2226, 2227, 2228, 2229, 2230, 2266, 2267, 2268, 2269, 2270, 2276
 2277, 2278, 2279, 2280
*Elset, elset=__PICKEDSURF38_S4_1, internal, instance=PART-1-1
  287,  288,  289,  290,  291,  292,  293, 2246, 2254, 2255, 2256, 2257, 2258, 2259, 2260
*Elset, elset=__PICKEDSURF38_S3_1, internal, instance=PART-1-1
  294,  295,  296,  297,  298,  299,  300,  302, 2247, 2248, 2249, 2250, 2251, 2252, 2253
*Surface, type=ELEMENT, name=_PICKEDSURF38, internal
__PICKEDSURF38_S2_1, S2
__PICKEDSURF38_S5_1, S5
__PICKEDSURF38_S4_1, S4
__PICKEDSURF38_S3_1, S3
*End Assembly
** 
** MATERIALS
** 
*Material, name=ZINC
*Conductivity
 0.1121, 20.
 0.1103,100.
*Electrical Conductivity
16750., 20.
12920.,100.
*Joule Heat Fraction
          1.,
** 
** INTERACTION PROPERTIES
** 
*Film Property, name=BLADES-PROP
5.42e-06, 25.
9.6e-06, 40.
1.17e-05, 60.
1.3e-05, 80.
1.41e-05, 100.
*Film Property, name=ELEMENT-PROP
6.57e-06, 25.
1.16e-05, 40.
1.42e-05, 60.
1.58e-05, 80.
1.7e-05, 100.
** ----------------------------------------------------------------
** 
** STEP: Step-1
** 
*Step, name=Step-1, nlgeom=NO
*Coupled Thermal-electrical, steady state, deltmx=0.
1., 1., 1e-05, 1., 
** 
** BOUNDARY CONDITIONS
** 
** Name: Elec-BC-1 Type: Electric potential
*Boundary
_PICKEDSET33, 9, 9
** Name: Temp-BC-1 Type: Temperature
*Boundary
_PICKEDSET34, 11, 11, 29.4
** Name: Temp-BC-2 Type: Temperature
*Boundary
_PICKEDSET35, 11, 11, 30.2
** 
** LOADS
** 
** Name: SURFCURR-1   Type: Surface current
*Dsecurrent
LHS,CS,6.
** 
** INTERACTIONS
** 
** Interaction: SURFFILM-1
*Sfilm
_PICKEDSURF37, F, 23.3, BLADES-PROP
** Interaction: SURFFILM-2
*Sfilm
_PICKEDSURF38, F, 23.3, ELEMENT-PROP
** 
** OUTPUT REQUESTS
** 
*Restart, write, frequency=1
** 
** FIELD OUTPUT: F-Output-3
** 
*Output, field, frequency=100
*Element Output, directions=YES
ECD, 
*Contact Output
ECD, 
** 
** FIELD OUTPUT: F-Output-2
** 
*Element Output, directions=YES
ECD, EPG, HFL
*Contact Output
ECD, 
** 
** FIELD OUTPUT: F-Output-1
** 
*Node Output
EPOT, NT
** 
** HISTORY OUTPUT: H-Output-1
** 
*Output, history, variable=PRESELECT
*End Step
** ----------------------------------------------------------------
** 
** STEP: Step-2
** 
*Step, name=Step-2, nlgeom=NO
*Heat Transfer, steady state, deltmx=0.
1., 1., 1e-05, 1., 
** 
** OUTPUT REQUESTS
** 
*Restart, write, frequency=1
** 
** FIELD OUTPUT: F-Output-5
** 
*Output, field, frequency=100
*Element Output, directions=YES
HFL, 
** 
** FIELD OUTPUT: F-Output-4
** 
*Node Output
NT, 
*Output, history, frequency=0
*End Step
